output/Khadpabandh/Voltages.csv
Bus, BasekV, Node1, Magnitude1, Angle1, pu1, Node2, Magnitude2, Angle2, pu2, Node3, Magnitude3, Angle3, pu3
"SUBSTATION", 11, 1,    6341.88,   -0.1,   0.99859, 2,    6341.88, -120.1,   0.99859, 3,    6341.88,  119.9,   0.99859
"3W_COLONY", 11, 1,    6324.62,   -0.1,   0.99587, 2,    6324.62, -120.1,   0.99587, 3,    6324.62,  119.9,   0.99587
"2W_CURTI", 11, 1,    6324.62,   -0.1,   0.99587, 2,    6324.62, -120.1,   0.99587, 3,    6324.62,  119.9,   0.99587
"COLONY", 11, 1,    6321.97,   -0.1,   0.99545, 2,    6321.97, -120.1,   0.99545, 3,    6321.97,  119.9,   0.99545
"LOTLIKAR_NAGA_MASJID", 11, 1,    6305.24,   -0.1,   0.99282, 2,    6305.24, -120.1,   0.99282, 3,    6305.24,  119.9,   0.99282
"USMANIA", 11, 1,    6297.46,   -0.1,   0.99159, 2,    6297.46, -120.1,   0.99159, 3,    6297.46,  119.9,   0.99159
"HUSSAIN", 11, 1,     6291.1,   -0.1,   0.99059, 2,     6291.1, -120.1,   0.99059, 3,     6291.1,  119.9,   0.99059
"4W_SPORTS_C", 11, 1,    6282.21,   -0.2,   0.98919, 2,    6282.21, -120.2,   0.98919, 3,    6282.21,  119.8,   0.98919
"SPORTS_COMPLEX", 11, 1,    6281.83,   -0.2,   0.98913, 2,    6281.83, -120.2,   0.98913, 3,    6281.83,  119.8,   0.98913
"SPORTS_COMPLEX_HTC", 11, 1,    6281.37,   -0.2,   0.98906, 2,    6281.37, -120.2,   0.98906, 3,    6281.37,  119.8,   0.98906
"3W_SPORTS_C", 11, 1,    6281.91,   -0.2,   0.98914, 2,    6281.91, -120.2,   0.98914, 3,    6281.91,  119.8,   0.98914
"4W_MILITARY_GATE", 11, 1,    6275.94,   -0.2,    0.9882, 2,    6275.94, -120.2,    0.9882, 3,    6275.94,  119.8,    0.9882
"4W_SHEETAL_BAR", 11, 1,    6275.71,   -0.2,   0.98817, 2,    6275.71, -120.2,   0.98817, 3,    6275.71,  119.8,   0.98817
"VARKHANDE", 11, 1,    6275.55,   -0.2,   0.98814, 2,    6275.55, -120.2,   0.98814, 3,    6275.55,  119.8,   0.98814
"4W_GANGANATH", 11, 1,    6272.41,   -0.2,   0.98765, 2,    6272.41, -120.2,   0.98765, 3,    6272.41,  119.8,   0.98765
"2W_VARKHANDEM", 11, 1,    6272.41,   -0.2,   0.98765, 2,    6272.41, -120.2,   0.98765, 3,    6272.41,  119.8,   0.98765
"GANGANATH", 11, 1,    6272.38,   -0.2,   0.98764, 2,    6272.38, -120.2,   0.98764, 3,    6272.38,  119.8,   0.98764
"HERITAGE_II", 11, 1,     6271.5,   -0.2,    0.9875, 2,     6271.5, -120.2,    0.9875, 3,     6271.5,  119.8,    0.9875
"HERITAGE_I", 11, 1,    6271.44,   -0.2,    0.9875, 2,    6271.44, -120.2,    0.9875, 3,    6271.44,  119.8,    0.9875
"ALMEDA", 11, 1,       6269,   -0.2,   0.98711, 2,       6269, -120.2,   0.98711, 3,       6269,  119.8,   0.98711
"3W_ALMEDA", 11, 1,    6266.65,   -0.2,   0.98674, 2,    6266.65, -120.2,   0.98674, 3,    6266.65,  119.8,   0.98674
"ANGARKI", 11, 1,    6269.23,   -0.2,   0.98715, 2,    6269.23, -120.2,   0.98715, 3,    6269.23,  119.8,   0.98715
"3W_MARUTI_TEMPLE", 11, 1,    6272.38,   -0.2,   0.98764, 2,    6272.38, -120.2,   0.98764, 3,    6272.38,  119.8,   0.98764
"SUNGRACE_HTC", 11, 1,    6272.58,   -0.2,   0.98767, 2,    6272.58, -120.2,   0.98767, 3,    6272.58,  119.8,   0.98767
"VRUDHAVAN_GARDEN", 11, 1,    6273.52,   -0.2,   0.98782, 2,    6273.52, -120.2,   0.98782, 3,    6273.52,  119.8,   0.98782
"2W_PANDITWADA", 11, 1,    6275.71,   -0.2,   0.98817, 2,    6275.71, -120.2,   0.98817, 3,    6275.71,  119.8,   0.98817
"PATIL", 11, 1,    6255.63,   -0.2,   0.98501, 2,    6255.63, -120.2,   0.98501, 3,    6255.63,  119.8,   0.98501
"3W_PUROHIT", 11, 1,    6245.19,   -0.2,   0.98336, 2,    6245.19, -120.2,   0.98336, 3,    6245.19,  119.8,   0.98336
"BHARDWAJ", 11, 1,    6241.38,   -0.2,   0.98276, 2,    6241.38, -120.2,   0.98276, 3,    6241.38,  119.8,   0.98276
"MAHALAXMI_DEV", 11, 1,    6238.72,   -0.2,   0.98234, 2,    6238.72, -120.2,   0.98234, 3,    6238.72,  119.8,   0.98234
"RAVINAGAR", 11, 1,    6232.96,   -0.2,   0.98144, 2,    6232.96, -120.2,   0.98144, 3,    6232.96,  119.8,   0.98144
"3W_RAVINAGAR", 11, 1,    6232.74,   -0.2,    0.9814, 2,    6232.74, -120.2,    0.9814, 3,    6232.74,  119.8,    0.9814
"2W_RAVINAGAR", 11, 1,    6232.74,   -0.2,    0.9814, 2,    6232.74, -120.2,    0.9814, 3,    6232.74,  119.8,    0.9814
"PUROHIT", 11, 1,    6245.07,   -0.2,   0.98334, 2,    6245.07, -120.2,   0.98334, 3,    6245.07,  119.8,   0.98334
"RANI_CONSTRUCTION", 11, 1,    6242.66,   -0.2,   0.98296, 2,    6242.66, -120.2,   0.98296, 3,    6242.66,  119.8,   0.98296
"KEDAR", 11, 1,    6240.55,   -0.2,   0.98263, 2,    6240.55, -120.2,   0.98263, 3,    6240.55,  119.8,   0.98263
"DESSAI_SANTOBA", 11, 1,     6240.3,   -0.2,   0.98259, 2,     6240.3, -120.2,   0.98259, 3,     6240.3,  119.8,   0.98259
"MAHARUDRA", 11, 1,     6240.1,   -0.2,   0.98256, 2,     6240.1, -120.2,   0.98256, 3,     6240.1,  119.8,   0.98256
"2W_PERIGOL", 11, 1,     6240.1,   -0.2,   0.98256, 2,     6240.1, -120.2,   0.98256, 3,     6240.1,  119.8,   0.98256
"FRIENDS_COLONY", 11, 1,     6227.6,   -0.2,   0.98059, 2,     6227.6, -120.2,   0.98059, 3,     6227.6,  119.8,   0.98059
"KHADPABANDH_GARDEN_II", 11, 1,    6226.16,   -0.2,   0.98037, 2,    6226.16, -120.2,   0.98037, 3,    6226.16,  119.8,   0.98037
"3W_FOUR_POLE", 11, 1,    6224.68,   -0.2,   0.98013, 2,    6224.68, -120.2,   0.98013, 3,    6224.68,  119.8,   0.98013
"4W_DURBHAT", 11, 1,    6224.68,   -0.2,   0.98013, 2,    6224.68, -120.2,   0.98013, 3,    6224.68,  119.8,   0.98013
"KHADPABANDH_GARDEN_I", 11, 1,    6222.84,   -0.2,   0.97984, 2,    6222.84, -120.2,   0.97984, 3,    6222.84,  119.8,   0.97984
"SEWERAGE_HTC", 11, 1,     6221.6,   -0.2,   0.97965, 2,     6221.6, -120.2,   0.97965, 3,     6221.6,  119.8,   0.97965
"3W_DAAG", 11, 1,    6220.55,   -0.2,   0.97948, 2,    6220.55, -120.2,   0.97948, 3,    6220.55,  119.8,   0.97948
"3W_PONDA_1", 11, 1,    6220.55,   -0.2,   0.97948, 2,    6220.55, -120.2,   0.97948, 3,    6220.55,  119.8,   0.97948
"3W_BHAGWATI", 11, 1,    6220.55,   -0.2,   0.97948, 2,    6220.55, -120.2,   0.97948, 3,    6220.55,  119.8,   0.97948
"BHAGWATI_II", 11, 1,    6220.11,   -0.2,   0.97941, 2,    6220.11, -120.2,   0.97941, 3,    6220.11,  119.8,   0.97941
"BHAGWATI_I", 11, 1,    6219.57,   -0.2,   0.97933, 2,    6219.57, -120.2,   0.97933, 3,    6219.57,  119.8,   0.97933
"2W_SATYANARAYAN_TEMPLE", 11, 1,    6219.57,   -0.2,   0.97933, 2,    6219.57, -120.2,   0.97933, 3,    6219.57,  119.8,   0.97933
"COLONYBUS", 0.415, 1,    231.801,   -1.1,   0.96745, 2,    231.801, -121.1,   0.96745, 3,    231.801,  118.9,   0.96745
"LOTLIKAR_NAGA_MASJIDBUS", 0.415, 1,    228.799,   -1.5,   0.95492, 2,    228.799, -121.5,   0.95492, 3,    228.799,  118.5,   0.95492
"USMANIABUS", 0.415, 1,    228.493,   -1.5,   0.95364, 2,    228.493, -121.5,   0.95364, 3,    228.493,  118.5,   0.95364
"VARKHANDEBUS", 0.415, 1,    228.821,   -1.3,   0.95501, 2,    228.821, -121.3,   0.95501, 3,    228.821,  118.7,   0.95501
"VRUDHAVAN_GARDENBUS", 0.415, 1,    229.918,   -1.2,   0.95959, 2,    229.918, -121.2,   0.95959, 3,    229.918,  118.8,   0.95959
"NAGAMASJID_NEW", 11, 1,          0,    0.0,         0, 2,          0,    0.0,         0, 3,          0,    0.0,         0
"NAGAMASJID_NEWBUS", 11, 1,          0,    0.0,         0, 2,          0,    0.0,         0, 3,          0,    0.0,         0
"ANGARKIBUS", 0.415, 1,    227.402,   -1.5,   0.94909, 2,    227.402, -121.5,   0.94909, 3,    227.402,  118.5,   0.94909
"GANGANATHBUS", 0.415, 1,    227.516,   -1.5,   0.94956, 2,    227.516, -121.5,   0.94956, 3,    227.516,  118.5,   0.94956
"HERITAGE_IBUS", 0.415, 1,    236.604,   -0.2,    0.9875, 2,    236.604, -120.2,    0.9875, 3,    236.604,  119.8,    0.9875
"HERITAGE_IIBUS", 0.415, 1,    236.606,   -0.2,    0.9875, 2,    236.606, -120.2,    0.9875, 3,    236.606,  119.8,    0.9875
"ALMEDABUS", 0.415, 1,    227.394,   -1.5,   0.94906, 2,    227.394, -121.5,   0.94906, 3,    227.394,  118.5,   0.94906
"PATILBUS", 0.415, 1,    228.043,   -1.4,   0.95176, 2,    228.043, -121.4,   0.95176, 3,    228.043,  118.6,   0.95176
"PUROHITBUS", 0.415, 1,     226.53,   -1.6,   0.94545, 2,     226.53, -121.6,   0.94545, 3,     226.53,  118.4,   0.94545
"BHARDWAJBUS", 0.415, 1,    227.495,   -1.4,   0.94948, 2,    227.495, -121.4,   0.94948, 3,    227.495,  118.6,   0.94948
"MAHALAXMI_DEVBUS", 0.415, 1,    228.564,   -1.2,   0.95394, 2,    228.564, -121.2,   0.95394, 3,    228.564,  118.8,   0.95394
"KEDARBUS", 0.415, 1,    226.366,   -1.6,   0.94477, 2,    226.366, -121.6,   0.94477, 3,    226.366,  118.4,   0.94477
"DESSAI_SANTOBABUS", 0.415, 1,    229.794,   -1.0,   0.95907, 2,    229.794, -121.0,   0.95907, 3,    229.794,  119.0,   0.95907
"RANI_CONSTRUCTIONBUS", 0.415, 1,    227.541,   -1.4,   0.94967, 2,    227.541, -121.4,   0.94967, 3,    227.541,  118.6,   0.94967
"MAHARUDRABUS", 0.415, 1,    228.618,   -1.2,   0.95416, 2,    228.618, -121.2,   0.95416, 3,    228.618,  118.8,   0.95416
"RAVINAGARBUS", 0.415, 1,    226.092,   -1.6,   0.94362, 2,    226.092, -121.6,   0.94362, 3,    226.092,  118.4,   0.94362
"FRIENDS_COLONYBUS", 0.415, 1,    225.898,   -1.6,   0.94281, 2,    225.898, -121.6,   0.94281, 3,    225.898,  118.4,   0.94281
"KHADPABANDH_GARDEN_IIBUS", 0.415, 1,    230.404,   -0.9,   0.96162, 2,    230.404, -120.9,   0.96162, 3,    230.404,  119.1,   0.96162
"KHADPABANDH_GARDEN_IBUS", 0.415, 1,    229.118,   -1.1,   0.95625, 2,    229.118, -121.1,   0.95625, 3,    229.118,  118.9,   0.95625
"SPORTS_COMPLEXBUS", 0.415, 1,    227.878,   -1.5,   0.95108, 2,    227.878, -121.5,   0.95108, 3,    227.878,  118.5,   0.95108
"BHAGWATI_IBUS", 0.415, 1,    225.609,   -1.6,    0.9416, 2,    225.609, -121.6,    0.9416, 3,    225.609,  118.4,    0.9416
"BHAGWATI_IIBUS", 0.415, 1,    225.628,   -1.6,   0.94169, 2,    225.628, -121.6,   0.94169, 3,    225.628,  118.4,   0.94169
"SEWERAGE_HTCBUS", 0.415, 1,    227.898,   -1.2,   0.95116, 2,    227.898, -121.2,   0.95116, 3,    227.898,  118.8,   0.95116
"SPORTS_COMPLEX_HTCBUS", 0.415, 1,    229.049,   -1.3,   0.95596, 2,    229.049, -121.3,   0.95596, 3,    229.049,  118.7,   0.95596
"SUNGRACE_HTCBUS", 0.415, 1,    229.881,   -1.2,   0.95943, 2,    229.881, -121.2,   0.95943, 3,    229.881,  118.8,   0.95943
"HERITAGEIBUS", 11, 1,          0,    0.0,         0, 2,          0,    0.0,         0, 3,          0,    0.0,         0
"HERITAGEIIBUS", 11, 1,          0,    0.0,         0, 2,          0,    0.0,         0, 3,          0,    0.0,         0
